Version 4
SHEET 1 1292 744
WIRE -48 -160 -208 -160
WIRE -208 -112 -208 -160
WIRE 208 -64 112 -64
WIRE 400 -64 288 -64
WIRE 496 -64 400 -64
WIRE 832 -64 560 -64
WIRE 976 -64 832 -64
WIRE 1136 -64 976 -64
WIRE 976 -32 976 -64
WIRE 832 0 832 -64
WIRE -208 16 -208 -32
WIRE 400 32 400 -64
WIRE 976 64 976 32
WIRE -160 96 -224 96
WIRE -48 96 -80 96
WIRE 224 96 -48 96
WIRE 832 96 832 80
WIRE 832 96 560 96
WIRE 832 112 832 96
WIRE -48 128 -48 96
WIRE 656 160 560 160
WIRE -48 208 -48 192
WIRE 128 224 32 224
WIRE 224 224 128 224
WIRE 656 224 656 160
WIRE 656 224 560 224
WIRE 752 224 656 224
WIRE 832 224 832 192
WIRE 128 240 128 224
WIRE 656 240 656 224
WIRE 752 240 752 224
WIRE 608 288 560 288
WIRE 128 320 128 304
WIRE 608 320 608 288
WIRE 656 320 656 304
WIRE -160 352 -224 352
WIRE -48 352 -80 352
WIRE 224 352 -48 352
WIRE 752 352 752 320
WIRE 752 352 560 352
WIRE 864 352 752 352
WIRE -48 384 -48 352
WIRE 752 384 752 352
WIRE 864 400 864 352
WIRE -48 464 -48 448
WIRE 304 464 304 416
WIRE 752 496 752 464
WIRE 864 496 864 464
WIRE 864 496 752 496
WIRE 368 560 336 560
WIRE 480 560 480 416
WIRE 480 560 448 560
WIRE 512 560 480 560
WIRE 608 560 576 560
WIRE 640 560 608 560
WIRE 752 560 752 496
WIRE 752 560 720 560
WIRE 1136 560 752 560
WIRE 752 592 752 560
WIRE 608 608 608 560
WIRE 608 704 608 672
WIRE 752 704 752 656
FLAG -208 16 0
FLAG -48 -160 Vbat
FLAG 832 224 0
FLAG 656 320 0
FLAG 608 320 0
FLAG 752 704 0
FLAG 1136 560 Vo_n
FLAG 976 64 0
FLAG 1136 -64 Vo_p
FLAG 608 704 0
FLAG 112 -64 Vbat
FLAG 336 560 Vbat
FLAG 304 464 0
FLAG 32 224 Vbat
FLAG 128 320 0
FLAG -48 464 0
FLAG -48 208 0
FLAG -224 96 Vbat
FLAG -224 352 Vbat
SYMBOL voltage -208 -128 R0
WINDOW 123 0 0 Left 0
WINDOW 39 24 124 Left 2
SYMATTR SpiceLine Rser=0.2
SYMATTR InstName V1
SYMATTR Value 3.6
SYMBOL PowerProducts\\LT3471 400 224 R0
SYMATTR InstName U1
SYMBOL ind 192 -48 R270
WINDOW 0 32 56 VTop 2
WINDOW 3 5 56 VBottom 2
SYMATTR InstName L1
SYMATTR Value 2.2µ
SYMBOL res 816 -16 R0
SYMATTR InstName R1
SYMATTR Value 90k
SYMBOL res 816 96 R0
SYMATTR InstName R2
SYMATTR Value 15k
SYMBOL cap 640 240 R0
SYMATTR InstName C1
SYMATTR Value 100n
SYMBOL res 736 224 R0
SYMATTR InstName R3
SYMATTR Value 15k
SYMBOL res 736 368 R0
SYMATTR InstName R4
SYMATTR Value 105k
SYMBOL cap 848 400 R0
SYMATTR InstName C2
SYMATTR Value 75p
SYMBOL cap 736 592 R0
SYMATTR InstName C3
SYMATTR Value 10µ
SYMBOL cap 960 -32 R0
SYMATTR InstName C4
SYMATTR Value 4.7µ
SYMBOL ind 624 576 R270
WINDOW 0 32 56 VTop 2
WINDOW 3 5 56 VBottom 2
SYMATTR InstName L2
SYMATTR Value 15µ
SYMBOL schottky 592 608 R0
SYMATTR InstName D2
SYMATTR Value B540C
SYMATTR Description Diode
SYMATTR Type diode
SYMBOL cap 576 544 R90
WINDOW 0 0 32 VBottom 2
WINDOW 3 32 32 VTop 2
SYMATTR InstName C5
SYMATTR Value 1µ
SYMBOL ind 352 576 R270
WINDOW 0 32 56 VTop 2
WINDOW 3 5 56 VBottom 2
SYMATTR InstName L3
SYMATTR Value 10µ
SYMBOL cap 112 240 R0
SYMATTR InstName C6
SYMATTR Value 10µ
SYMBOL res -64 336 R90
WINDOW 0 0 56 VBottom 2
WINDOW 3 32 56 VTop 2
SYMATTR InstName R5
SYMATTR Value 4.7k
SYMBOL cap -64 384 R0
SYMATTR InstName C7
SYMATTR Value 10µ
SYMBOL res -64 80 R90
WINDOW 0 0 56 VBottom 2
WINDOW 3 32 56 VTop 2
SYMATTR InstName R6
SYMATTR Value 4.7k
SYMBOL cap -64 128 R0
SYMATTR InstName C8
SYMATTR Value 10µ
SYMBOL schottky 496 -48 R270
WINDOW 0 32 32 VTop 2
WINDOW 3 0 32 VBottom 2
SYMATTR InstName D3
SYMATTR Value B540C
SYMATTR Description Diode
SYMATTR Type diode
TEXT -168 -72 Left 2 ;18350
TEXT 496 -152 Left 2 ;schottky
TEXT -296 728 Left 2 !.tran 100m startup uic
