Version 4
SHEET 1 936 696
WIRE -64 -64 -112 -64
WIRE 80 -64 16 -64
WIRE 128 -64 80 -64
WIRE 272 -64 208 -64
WIRE 80 -48 80 -64
WIRE 864 16 48 16
WIRE 48 176 48 16
WIRE 128 176 48 176
WIRE 368 176 352 176
WIRE 48 240 -512 240
WIRE 128 240 48 240
WIRE 864 240 864 16
WIRE 864 240 352 240
WIRE 368 304 352 304
WIRE 560 304 544 304
WIRE 560 352 560 304
WIRE 496 400 448 400
WIRE 48 480 48 240
WIRE 448 480 448 400
WIRE 448 480 48 480
WIRE 576 480 560 448
WIRE 672 480 576 480
WIRE 864 480 864 240
WIRE 864 480 752 480
WIRE 560 512 576 480
WIRE 864 544 864 480
WIRE 448 560 448 480
WIRE 496 560 448 560
WIRE 864 624 864 608
WIRE 560 656 560 608
FLAG 128 112 0
FLAG 80 -48 0
FLAG -112 -64 N7V
FLAG 272 -64 P7V
FLAG 352 112 P7V
FLAG 128 304 P7V
FLAG -512 240 SW
IOPIN -512 240 Out
FLAG 864 624 0
FLAG 560 304 P7V
FLAG 560 656 0
SYMBOL Misc\\NE555 240 208 R0
SYMATTR InstName U1
SYMBOL voltage 224 -64 R90
WINDOW 0 -32 56 VBottom 2
WINDOW 3 32 56 VTop 2
WINDOW 123 0 0 Left 0
WINDOW 39 0 0 Left 0
SYMATTR InstName V1
SYMATTR Value 7
SYMBOL voltage 32 -64 R90
WINDOW 0 -32 56 VBottom 2
WINDOW 3 32 56 VTop 2
WINDOW 123 0 0 Left 0
WINDOW 39 0 0 Left 0
SYMATTR InstName V2
SYMATTR Value 7
SYMBOL cap 848 544 R0
SYMATTR InstName C1
SYMATTR Value 220n
SYMBOL res 768 464 R90
WINDOW 0 0 56 VBottom 2
WINDOW 3 32 56 VTop 2
SYMATTR InstName R1
SYMATTR Value 1K
SYMBOL ESM\\BJT\\TIP32C 496 608 M180
SYMATTR InstName U2
SYMBOL ESM\\BJT\\TIP31C 496 352 R0
SYMATTR InstName U3
TEXT -608 680 Left 2 !.tran 10m
