Version 4
SHEET 1 2012 788
WIRE 1584 16 -112 16
WIRE 128 112 80 112
WIRE 400 112 352 112
WIRE 480 112 400 112
WIRE -112 176 -112 16
WIRE 128 176 -112 176
WIRE 368 176 352 176
WIRE -112 240 -512 240
WIRE 128 240 -112 240
WIRE 1584 240 1584 16
WIRE 1584 240 352 240
WIRE 128 304 80 304
WIRE 512 304 352 304
WIRE 816 304 800 304
WIRE 1280 304 1264 304
WIRE 816 352 816 304
WIRE 1280 352 1280 304
WIRE 80 384 80 304
WIRE 400 384 400 112
WIRE 400 384 80 384
WIRE 1216 400 1168 400
WIRE 672 464 624 464
WIRE 816 464 816 432
WIRE 816 464 752 464
WIRE 880 464 816 464
WIRE 1168 480 1168 400
WIRE 1168 480 944 480
WIRE 1296 480 1280 448
WIRE 1344 480 1296 480
WIRE 1392 480 1344 480
WIRE 1520 480 1472 480
WIRE 1584 480 1584 240
WIRE 1584 480 1520 480
WIRE -112 496 -112 240
WIRE 464 496 -112 496
WIRE 880 496 544 496
WIRE 1280 512 1296 480
WIRE 1168 560 1168 480
WIRE 1216 560 1168 560
WIRE 1280 656 1280 608
FLAG -512 240 SW
IOPIN -512 240 Out
FLAG 1344 480 Ra
IOPIN 1344 480 BiDir
FLAG 1520 480 Rb
IOPIN 1520 480 BiDir
FLAG 480 112 Vcc
IOPIN 480 112 In
FLAG 512 304 Vctl
IOPIN 512 304 In
FLAG 912 448 Vcc
IOPIN 912 448 In
FLAG 624 464 Vcc
IOPIN 624 464 In
FLAG 1264 304 Vcc
IOPIN 1264 304 In
FLAG 912 512 GND
IOPIN 912 512 BiDir
FLAG 1280 656 GND
IOPIN 1280 656 BiDir
FLAG 80 112 GND
IOPIN 80 112 BiDir
FLAG 800 304 GND
IOPIN 800 304 BiDir
SYMBOL Misc\\NE555 240 208 R0
SYMATTR InstName U1
SYMBOL ESM\\BJT\\TIP32C 1216 608 M180
SYMATTR InstName U2
SYMBOL ESM\\BJT\\TIP31C 1216 352 R0
SYMATTR InstName U3
SYMBOL res 560 480 R90
WINDOW 0 0 56 VBottom 2
WINDOW 3 32 56 VTop 2
SYMATTR InstName R5
SYMATTR Value 5k
SYMBOL res 768 448 R90
WINDOW 0 0 56 VBottom 2
WINDOW 3 32 56 VTop 2
SYMATTR InstName R2
SYMATTR Value 10k
SYMBOL res 832 448 R180
WINDOW 0 36 76 Left 2
WINDOW 3 36 40 Left 2
SYMATTR InstName R3
SYMATTR Value 10k
SYMBOL OpAmps\\AD8039 912 416 R0
SYMATTR InstName U4
TEXT -608 770 Left 2 !.tran 10m
