Version 4
SHEET 1 2160 1300
WIRE 64 96 0 96
WIRE 352 96 320 96
WIRE 384 96 352 96
WIRE 192 112 144 96
WIRE 192 112 240 96
WIRE 192 128 192 112
WIRE 304 384 144 384
WIRE 448 384 384 384
WIRE 608 384 448 384
WIRE 768 384 672 384
WIRE 2080 384 768 384
WIRE 768 432 768 384
WIRE 448 496 448 384
WIRE 768 528 768 496
WIRE 304 576 304 528
WIRE 400 576 304 576
WIRE 2080 592 2080 384
WIRE 304 608 304 576
WIRE 448 624 448 592
WIRE 2080 704 2080 672
WIRE 2080 704 1856 704
WIRE 2080 736 2080 704
WIRE 1808 752 1664 752
WIRE 912 848 880 848
WIRE 1008 848 992 848
WIRE 1104 848 1072 848
WIRE 1808 864 1808 752
WIRE 1808 864 1776 864
WIRE 1664 880 1664 752
WIRE 1664 880 1584 880
WIRE 1712 880 1664 880
WIRE 1392 896 1360 896
WIRE 1488 896 1456 896
WIRE 1856 896 1856 704
WIRE 1856 896 1776 896
WIRE 2080 896 2080 816
WIRE 64 944 -160 944
WIRE 880 960 880 848
WIRE 960 960 880 960
WIRE 1104 960 1104 848
WIRE 1104 960 1040 960
WIRE 1360 976 1360 896
WIRE 1488 976 1488 896
WIRE 1488 976 1440 976
WIRE 1952 992 1808 992
WIRE -48 1008 -64 1008
WIRE 64 1008 -48 1008
WIRE 416 1008 288 1008
WIRE 2080 1056 2080 1024
WIRE -64 1072 -64 1008
WIRE 496 1072 288 1072
WIRE 1104 1072 1104 960
WIRE 1104 1072 1056 1072
WIRE 1152 1072 1152 992
WIRE 1152 1072 1104 1072
WIRE 1216 1072 1152 1072
WIRE 720 1088 656 1088
WIRE 880 1088 880 960
WIRE 880 1088 800 1088
WIRE 992 1088 880 1088
WIRE 1488 1088 1488 976
WIRE 1488 1088 1472 1088
WIRE 1584 1088 1584 880
WIRE 1584 1088 1568 1088
WIRE 656 1104 656 1088
WIRE 656 1104 560 1104
WIRE 1360 1104 1360 976
WIRE 1360 1104 1056 1104
WIRE 1408 1104 1360 1104
WIRE 1952 1104 1952 992
WIRE 1952 1104 1920 1104
WIRE 1632 1120 1472 1120
WIRE 1680 1120 1632 1120
WIRE 1808 1120 1808 992
WIRE 1808 1120 1760 1120
WIRE 1856 1120 1808 1120
WIRE 1632 1136 1632 1120
WIRE 2080 1136 1920 1136
WIRE 496 1152 496 1072
WIRE 560 1152 560 1104
WIRE 560 1152 496 1152
WIRE -160 1168 -160 944
WIRE -64 1168 -64 1152
WIRE -64 1168 -160 1168
WIRE 80 1168 -64 1168
WIRE 416 1168 416 1008
WIRE 416 1168 80 1168
WIRE 80 1184 80 1168
WIRE 2080 1184 2080 1136
WIRE 80 1264 80 1248
WIRE 2080 1280 2080 1264
FLAG 192 128 0
FLAG 384 96 P7V
FLAG 0 96 N7V
FLAG 448 624 0
FLAG 144 384 P7V
FLAG 64 880 0
FLAG 288 880 P7V
FLAG 80 1264 0
FLAG 64 1072 P7V
FLAG -48 1008 Vsw
FLAG 304 528 Vsw
FLAG 304 688 0
FLAG 768 528 0
FLAG 1744 848 P7V
FLAG 1744 912 N7V
FLAG 2080 896 0
FLAG 1440 1072 P7V
FLAG 1440 1136 N7V
FLAG 2080 1024 P7V
FLAG 2080 1280 0
FLAG 1888 1088 P7V
FLAG 1888 1152 N7V
FLAG 1632 1216 0
FLAG 496 1232 0
FLAG 1024 1056 P7V
FLAG 1024 1120 N7V
FLAG 1296 1072 0
FLAG 1296 992 0
FLAG 352 160 0
SYMBOL voltage 336 96 R90
WINDOW 0 -32 56 VBottom 2
WINDOW 3 32 56 VTop 2
WINDOW 123 0 0 Left 0
WINDOW 39 60 56 VTop 2
SYMATTR InstName V1
SYMATTR Value 7
SYMBOL voltage 160 96 R90
WINDOW 0 -32 56 VBottom 2
WINDOW 3 32 56 VTop 2
WINDOW 123 0 0 Left 0
WINDOW 39 0 0 Left 0
SYMATTR InstName V2
SYMATTR Value 7
SYMBOL ind2 288 400 R270
WINDOW 0 32 56 VTop 2
WINDOW 3 5 56 VBottom 2
SYMATTR InstName L1
SYMATTR Value 47µ
SYMATTR Type ind
SYMATTR SpiceLine Rser=13.42m
SYMBOL Misc\\NE555 176 976 R0
SYMATTR InstName U2
SYMBOL res -80 1056 R0
SYMATTR InstName R1
SYMATTR Value 2k
SYMBOL cap 64 1184 R0
SYMATTR InstName C1
SYMATTR Value 2.2n
SYMBOL ON\\FCP125N65S3_3p 400 496 R0
SYMATTR InstName U1
SYMBOL res 288 592 R0
SYMATTR InstName R2
SYMATTR Value 100k
SYMBOL cap 752 432 R0
SYMATTR InstName C2
SYMATTR Value 220n
SYMBOL OpAmps\\AD820 1744 816 M0
SYMATTR InstName U3
SYMBOL res 2064 576 R0
SYMATTR InstName R4
SYMATTR Value 990k
SYMBOL res 2064 720 R0
SYMATTR InstName R5
SYMATTR Value 10k
SYMBOL OpAmps\\AD820 1440 1040 M0
SYMATTR InstName U4
SYMBOL res 2064 1168 R0
SYMATTR InstName R3
SYMATTR Value 60k
SYMBOL res 2064 1040 R0
SYMATTR InstName R6
SYMATTR Value 40k
SYMBOL res 1456 960 R90
WINDOW 0 0 56 VBottom 2
WINDOW 3 32 56 VTop 2
SYMATTR InstName R7
SYMATTR Value 10k
SYMBOL res 1584 1072 R90
WINDOW 0 0 56 VBottom 2
WINDOW 3 32 56 VTop 2
SYMATTR InstName R8
SYMATTR Value 10k
SYMBOL OpAmps\\AD820 1888 1056 M0
SYMATTR InstName U5
SYMBOL res 1776 1104 R90
WINDOW 0 0 56 VBottom 2
WINDOW 3 32 56 VTop 2
SYMATTR InstName R9
SYMATTR Value 10k
SYMBOL res 1648 1232 R180
WINDOW 0 36 76 Left 2
WINDOW 3 36 40 Left 2
SYMATTR InstName R10
SYMATTR Value 10k
SYMBOL res 480 1136 R0
SYMATTR InstName R11
SYMATTR Value 5k
SYMBOL OpAmps\\AD820 1024 1024 M0
SYMATTR InstName U6
SYMBOL res 1056 944 R90
WINDOW 0 0 56 VBottom 2
WINDOW 3 32 56 VTop 2
SYMATTR InstName Rf_pd
SYMATTR Value 40k
SYMBOL res 1312 1056 R90
WINDOW 0 0 56 VBottom 2
WINDOW 3 32 56 VTop 2
SYMATTR InstName Rg
SYMATTR Value 1k
SYMBOL cap 1072 832 R90
WINDOW 0 0 32 VBottom 2
WINDOW 3 32 32 VTop 2
SYMATTR InstName C_i
SYMATTR Value 2.2n
SYMBOL cap 1296 976 R90
WINDOW 0 0 32 VBottom 2
WINDOW 3 32 32 VTop 2
SYMATTR InstName C_d
SYMATTR Value 220n
SYMBOL schottky 608 400 R270
WINDOW 0 32 32 VTop 2
WINDOW 3 0 32 VBottom 2
SYMATTR InstName D1
SYMATTR Value UPSC600
SYMATTR Description Diode
SYMATTR Type diode
SYMBOL cap 336 96 R0
SYMATTR InstName C5
SYMATTR Value 470µ
SYMBOL res 1008 832 R90
WINDOW 0 0 56 VBottom 2
WINDOW 3 32 56 VTop 2
SYMATTR InstName Rf_i
SYMATTR Value 20k
SYMBOL res 1248 976 R90
WINDOW 0 0 56 VBottom 2
WINDOW 3 32 56 VTop 2
SYMATTR InstName Rg_d
SYMATTR Value 1k
SYMBOL res 816 1072 R90
WINDOW 0 0 56 VBottom 2
WINDOW 3 32 56 VTop 2
SYMATTR InstName R12
SYMATTR Value 1k
TEXT -64 648 Left 2 !.tran 0 50m 0.1M startup uic
TEXT -360 432 Left 2 ;need 380-450V\nnom 415
TEXT 1504 496 Left 2 ;FCP125N65S3_3p
TEXT 728 920 Left 2 ;rough PID
TEXT 160 0 Left 2 ;may want soft starter
TEXT 120 -96 Left 2 ;.35W quiescient, not bad
TEXT 1128 808 Left 2 ;C_i << C_d
TEXT 1128 832 Left 2 ;Rf_i << Rg
